/*---------------------------------------------------------------------------*\
  =========                 |
  \\      /  F ield         | OpenFOAM: The Open Source CFD Toolbox
   \\    /   O peration     | Website:  https://openfoam.org
    \\  /    A nd           | Version:  9
     \\/     M anipulation  |
\*---------------------------------------------------------------------------*/
Build  : 9
Exec   : checkMesh
Date   : Sep 13 2025
Time   : 00:03:29
Host   : "node045.csf4.local"
PID    : 2237448
I/O    : uncollated
Case   : /scratch/q21422vn/cavity/mesh_1000x1000
nProcs : 1
sigFpe : Enabling floating point exception trapping (FOAM_SIGFPE).
fileModificationChecking : Monitoring run-time modified files using timeStampMaster (fileModificationSkew 10)
allowSystemOperations : Allowing user-supplied system call operations

// * * * * * * * * * * * * * * * * * * * * * * * * * * * * * * * * * * * * * //
Create time

Create polyMesh for time = 0

Time = 0

Mesh stats
    points:           2004002
    internal points:  0
    faces:            4002000
    internal faces:   1998000
    cells:            1000000
    faces per cell:   6
    boundary patches: 3
    point zones:      0
    face zones:       0
    cell zones:       0

Overall number of cells of each type:
    hexahedra:     1000000
    prisms:        0
    wedges:        0
    pyramids:      0
    tet wedges:    0
    tetrahedra:    0
    polyhedra:     0

Checking topology...
    Boundary definition OK.
    Cell to face addressing OK.
    Point usage OK.
    Upper triangular ordering OK.
    Face vertices OK.
    Number of regions: 1 (OK).

Checking patch topology for multiply connected surfaces...
    Patch               Faces    Points   Surface topology                  
    movingWall          1000     2002     ok (non-closed singly connected)  
    fixedWalls          3000     6002     ok (non-closed singly connected)  
    frontAndBack        2000000  2004002  ok (non-closed singly connected)  

Checking geometry...
    Overall domain bounding box (0 0 0) (1 1 0.1)
    Mesh has 2 geometric (non-empty/wedge) directions (1 1 0)
    Mesh has 2 solution (non-empty) directions (1 1 0)
    All edges aligned with or perpendicular to non-empty directions.
    Boundary openness (-1.9076594e-16 -6.25675e-18 4.7916544e-17) OK.
    Max cell openness = 2.0877326e-16 OK.
    Max aspect ratio = 2.5981996 OK.
    Minimum face area = 3.848819e-07. Maximum face area = 0.00015395276.  Face area magnitudes OK.
    Min volume = 3.848819e-08. Max volume = 1.5395276e-07.  Total volume = 0.1.  Cell volumes OK.
    Mesh non-orthogonality Max: 0 average: 0
    Non-orthogonality check OK.
    Face pyramids OK.
    Max skewness = 1.9428904e-12 OK.
    Coupled point location match (average 0) OK.

Mesh OK.

End

