/Users/user/queens-experiments/openfoam_driver_test/2/jobscript.sh: line 19: icoFoam: command not found
