/Users/user/queens-experiments/openfoam_driver_test/1/jobscript.sh: line 19: icoFoam: command not found
